mathpower/t/t_psse_case2.raw
 0,   100.00        / PSS/E-29.0
Nine Bus System-Documentation
PowerFactory 14.1.7  Date: 12/2/2013, Time: 11:54:12 AM
    1 'Bus 1   '  16.5000 3    0.000    0.000   1   1 1.04000    0.0000  1
    2 'Bus 2   '  18.0000 2    0.000    0.000   1   1 1.02500    8.7082  1
    3 'Bus 3   '  13.8000 2    0.000    0.000   1   1 1.02500    4.1856  1
    4 'Bus 4   ' 230.0000 1    0.000    0.000   1   1 1.03870  147.8191  1
    5 'Bus 5   ' 230.0000 1    0.000    0.000   1   1 1.01852  146.0461  1
    6 'Bus 6   ' 230.0000 1    0.000    0.000   1   1 1.03535  146.3131  1
    7 'Bus 7   ' 230.0000 1    0.000    0.000   1   1 1.06277  153.1267  1
    8 'Bus 8   ' 230.0000 1    0.000    0.000   1   1 1.05410  150.3322  1
    9 'Bus 9   ' 230.0000 1    0.000    0.000   1   1 1.06969  151.4775  1
   10 'Fault   ' 230.0000 1    0.000    0.000   1   1 1.05999  152.4213  1
 0   / END OF BUS DATA, BEGIN LOAD DATA
    5 '1 ' 1   1   1  125.000   50.000    0.000    0.000    0.000    0.000
    6 '1 ' 1   1   1   90.000   30.000    0.000    0.000    0.000    0.000
    8 '1 ' 1   1   1  100.000   35.000    0.000    0.000    0.000    0.000
   10 '1 ' 1   1   1    0.000    0.000    0.000    0.000    0.000    0.000
 0   / END OF LOAD DATA, BEGIN GENERATOR DATA
    1 '1 '    71.37     3.70   247.50  -247.50 1.0400     0  247.50 0.00000 0.10000 0.00000 0.00000 1.00000 1 100.0 247.5   0.0
    2 '1 '   163.00    13.04   192.00  -192.00 1.0250     0  192.00 0.00500 0.20000 0.00000 0.00000 1.00000 1 100.0 163.2   0.0
    3 '1 '    85.00    -4.20   128.00  -128.00 1.0250     0  128.00 0.00000 0.20000 0.00000 0.00000 1.00000 1 100.0 108.8   0.0
 0   / END OF GENERATOR DATA, BEGIN BRANCH DATA
    5     4 '1 '  0.0100000  0.0850000 0.17599831  398.37  398.37  398.37  0.00000  0.00000  0.00000  0.00000 1   1.000
    6     4 '1 '  0.0170000  0.0920000 0.15800701  398.37  398.37  398.37  0.00000  0.00000  0.00000  0.00000 1   1.000
   10     5 '1 '  0.0288000  0.1449000 0.27540003  398.37  398.37  398.37  0.00000  0.00000  0.00000  0.00000 1   0.900
    9     6 '1 '  0.0390000  0.1700000 0.35800075  398.37  398.37  398.37  0.00000  0.00000  0.00000  0.00000 1   1.000
    7     8 '1 '  0.0085000  0.0720000 0.14899814  398.37  398.37  398.37  0.00000  0.00000  0.00000  0.00000 1   1.000
    7    10 '1 '  0.0032000  0.0161000 0.03060001  398.37  398.37  398.37  0.00000  0.00000  0.00000  0.00000 1   0.100
    8     9 '1 '  0.0119000  0.1008000 0.20899731  398.37  398.37  398.37  0.00000  0.00000  0.00000  0.00000 1   1.000
 0   / END OF BRANCH DATA, BEGIN TRANSFORMER DATA
    4     1     0 '1 ' 1 1 1    0.00000   -0.00000 2 'T1      ' 1
   0.00000    0.05760   250.00
1.00000    0.000  150.000   250.00   250.00   250.00 0 0  1.05000  0.95000  1.10000  0.90000   11  0  0.00000  0.00000
1.00000    0.00000
    7     2     0 '1 ' 1 1 1    0.00000   -0.00000 2 'T2      ' 1
   0.00000    0.06250   200.00
1.04000    0.000  150.000   200.00   200.00   200.00 0 0  1.05000  0.95000  1.10000  0.90000   11  0  0.00000  0.00000
1.00000    0.00000
    9     3     0 '1 ' 1 1 1    0.00000   -0.00000 2 'T3      ' 1
   0.00000    0.05860   150.00
1.04000    0.000  150.000   150.00   150.00   150.00 0 0  1.05000  0.95000  1.10000  0.90000   11  0  0.00000  0.00000
1.00000    0.00000
 0   / END OF TRANSFORMER DATA, BEGIN AREA DATA
    1     0      0.000     10.000 'Nine_Bus'
 0   / END OF AREA DATA, BEGIN TWO-TERMINAL DC DATA
 0   / END OF TWO-TERMINAL DC DATA, BEGIN VOLTAGE SOURCE CONVERTER DATA
 0   / END OF VOLTAGE SOURCE CONVERTER DATA, BEGIN SWITCHED SHUNT DATA
 0   / END OF SWITCHED SHUNT DATA, BEGIN IMPEDANCE CORRECTION DATA
 0   / END OF IMPEDANCE CORRECTION DATA, BEGIN MULTI-TERMINAL DC DATA
 0   / END OF MULTI-TERMINAL DC DATA, BEGIN MULTI-SECTION LINE DATA
 0   / END OF MULTI-SECTION LINE DATA, BEGIN ZONE DATA
   1,'ZONE 1  '
 0   / END OF ZONE DATA, BEGIN INTER-AREA TRANSFER DATA
 0   / END OF INTER-AREA TRANSFER DATA, BEGIN OWNER DATA
 0   / END OF OWNER DATA, BEGIN FACTS CONTROL DEVICE DATA
 0   / END OF FACTS CONTROL DEVICE DATA
